[General]
network = CloudDataCenterTS
#cpu-time-limit = 60s
sim-time-limit = 10800s
#debug-on-errors = true
# seeds
num-rngs = 5
seed-1-mt = ${12846,42653,62532,74063,94215}
# parameters of the simulation
CloudDataCenterTS.nApps=1
CloudDataCenterTS.appProc[*].nServers=2
# request generation
CloudDataCenterTS.appProc[*].source.sendInterval=exponential(0.9s)
CloudDataCenterTS.appProc[*].source.maxInterval=-1s
# request processing
CloudDataCenterTS.appProc[*].server[*].serviceTime=exponential(0.9s)
CloudDataCenterTS.appProc[*].server[*].maxServiceTime=-1s
CloudDataCenterTS.appProc[*].server[*].capacity=-1
# delay
CloudDataCenterTS.appProc[*].delay[*].delay=exponential(0.3s)
CloudDataCenterTS.appProc[*].delay[*].maxDelay=-1s
# congControl
CloudDataCenterTS.appProc[*].congCtl[*].toCongestionStatusInterval = exponential (30s) 
CloudDataCenterTS.appProc[*].congCtl[*].fromCongestionStatusInterval = exponential (10s) 
CloudDataCenterTS.appProc[*].congCtl[*].congestionMultiplier = 1.3
# traces
CloudDataCenterTS.appProc[*].source.tracesFileName = "tracesFile-9.dat"
CloudDataCenterTS.appProc[*].source.nextJobIdFileName = "nextIdentificator.txt"
 
[Config NoTimeshared]

[Config Timeshared]

[Config TraceGeneration-1]
network = TracesGenerationSystem
sim-time-limit = 10800s
TracesGenerationSystem.tracer.interArrival = exponential(5s)
TracesGenerationSystem.tracer.service = exponential(3s)
TracesGenerationSystem.tracer.delay = exponential(0.75s)
TracesGenerationSystem.tracer.tracesFileName = "tracesFile-1.dat"

[Config TraceGeneration-2]
network = TracesGenerationSystem
sim-time-limit = 10800s
TracesGenerationSystem.tracer.interArrival = exponential(4s)
TracesGenerationSystem.tracer.service = exponential(2.2s)
TracesGenerationSystem.tracer.delay = exponential(0.6s)
TracesGenerationSystem.tracer.tracesFileName = "tracesFile-2.dat"

[Config TraceGeneration-3]
network = TracesGenerationSystem
sim-time-limit = 10800s
TracesGenerationSystem.tracer.interArrival = exponential(1s)
TracesGenerationSystem.tracer.service = exponential(0.7s)
TracesGenerationSystem.tracer.delay = exponential(0.1s)
TracesGenerationSystem.tracer.tracesFileName = "tracesFile-3.dat"

[Config TraceGeneration-4]
network = TracesGenerationSystem
sim-time-limit = 10800s
TracesGenerationSystem.tracer.interArrival = exponential(1.5s)
TracesGenerationSystem.tracer.service = exponential(0.9s)
TracesGenerationSystem.tracer.delay = exponential(0.2s)
TracesGenerationSystem.tracer.tracesFileName = "tracesFile-4.dat"

[Config TraceGeneration-5]
network = TracesGenerationSystem
sim-time-limit = 10800s
TracesGenerationSystem.tracer.interArrival = exponential(3s)
TracesGenerationSystem.tracer.service = exponential(2.2s)
TracesGenerationSystem.tracer.delay = exponential(0.8s)
TracesGenerationSystem.tracer.tracesFileName = "tracesFile-5.dat"

[Config TraceGeneration-6]
network = TracesGenerationSystem
sim-time-limit = 10800s
TracesGenerationSystem.tracer.interArrival = exponential(2s)
TracesGenerationSystem.tracer.service = exponential(2s)
TracesGenerationSystem.tracer.delay = exponential(0.6s)
TracesGenerationSystem.tracer.tracesFileName = "tracesFile-6.dat"

[Config TraceGeneration-7]
network = TracesGenerationSystem
sim-time-limit = 10800s
TracesGenerationSystem.tracer.interArrival = exponential(0.9s)
TracesGenerationSystem.tracer.service = exponential(0.5s)
TracesGenerationSystem.tracer.delay = exponential(0.1s)
TracesGenerationSystem.tracer.tracesFileName = "tracesFile-7.dat"

[Config TraceGeneration-8]
network = TracesGenerationSystem
sim-time-limit = 10800s
TracesGenerationSystem.tracer.interArrival = exponential(0.9s)
TracesGenerationSystem.tracer.service = exponential(0.8s)
TracesGenerationSystem.tracer.delay = exponential(0.1s)
TracesGenerationSystem.tracer.tracesFileName = "tracesFile-8.dat"

[Config TraceGeneration-9]
network = TracesGenerationSystem
sim-time-limit = 10800s
TracesGenerationSystem.tracer.interArrival = exponential(0.9s)
TracesGenerationSystem.tracer.service = exponential(0.9s)
TracesGenerationSystem.tracer.delay = exponential(0.3s)
TracesGenerationSystem.tracer.tracesFileName = "tracesFile-9.dat"

[Config TraceGeneration-10]
network = TracesGenerationSystem
sim-time-limit = 10800s
TracesGenerationSystem.tracer.interArrival = exponential(0.5s)
TracesGenerationSystem.tracer.service = exponential(0.4s)
TracesGenerationSystem.tracer.delay = exponential(0.1s)
TracesGenerationSystem.tracer.tracesFileName = "tracesFile-10.dat"

[Config TraceGeneration-11]
network = TracesGenerationSystem
sim-time-limit = 10800s
TracesGenerationSystem.tracer.interArrival = exponential(0.4s)
TracesGenerationSystem.tracer.service = exponential(0.35s)
TracesGenerationSystem.tracer.delay = exponential(0.17s)
TracesGenerationSystem.tracer.tracesFileName = "tracesFile-11.dat"


[Config TraceGeneration-12]
network = TracesGenerationSystem
sim-time-limit = 10800s
TracesGenerationSystem.tracer.interArrival = exponential(0.6s)
TracesGenerationSystem.tracer.service = exponential(0.55s)
TracesGenerationSystem.tracer.delay = exponential(0.35s)
TracesGenerationSystem.tracer.tracesFileName = "tracesFile-12.dat"